Version 4.1
SHEET 1 964 680
WIRE -272 -80 -272 -112
WIRE 64 0 -272 0
WIRE 592 112 592 64
WIRE 720 112 720 64
WIRE 160 160 160 80
WIRE 64 176 64 0
WIRE 128 176 64 176
WIRE 288 192 192 192
WIRE 368 192 288 192
WIRE 128 208 64 208
WIRE 160 272 160 224
WIRE 64 352 64 208
WIRE 64 352 -272 352
WIRE 64 432 64 352
WIRE 128 432 64 432
WIRE 288 432 288 192
WIRE 288 432 208 432
FLAG 160 272 0
FLAG 592 192 0
FLAG 720 192 0
FLAG 592 64 3V3
FLAG 720 64 VBAT
FLAG 160 80 3V3
FLAG -272 80 0
FLAG -272 -112 3V3
FLAG -272 272 VBAT
FLAG -272 432 0
SYMBOL voltage 592 96 R0
WINDOW 123 0 0 Left 0
WINDOW 39 0 0 Left 0
SYMATTR InstName V1
SYMATTR Value 3.3
SYMBOL voltage 720 96 R0
WINDOW 123 0 0 Left 0
WINDOW 39 0 0 Left 0
SYMATTR InstName V2
SYMATTR Value PULSE(8.4 6 2 1 1)
SYMBOL res -288 -96 R0
SYMATTR InstName R3
SYMATTR Value 10k
SYMBOL res -288 -16 R0
SYMATTR InstName R4
SYMATTR Value 10k
SYMBOL res -288 256 R0
SYMATTR InstName R7
SYMATTR Value 10k
SYMBOL res -288 336 R0
SYMATTR InstName R8
SYMATTR Value 3k7
SYMBOL res 224 416 R90
WINDOW 0 0 56 VBottom 2
WINDOW 3 32 56 VTop 2
SYMATTR InstName R1
SYMATTR Value 470k
SYMBOL OpAmps\\LT1498 160 128 R0
SYMATTR InstName U1
TEXT 120 296 Left 2 !.tran 20
