Version 4.1
SHEET 1 1260 680
WIRE 688 -80 688 -144
WIRE 928 -80 928 -144
WIRE 688 48 688 0
WIRE 928 48 928 0
WIRE -32 64 -32 16
WIRE 272 112 272 32
WIRE 240 128 128 128
WIRE 368 144 304 144
WIRE 576 144 368 144
WIRE -32 160 -32 144
WIRE 192 160 -32 160
WIRE 240 160 192 160
WIRE 896 176 896 128
WIRE -32 192 -32 160
WIRE 272 272 272 176
WIRE 896 272 896 256
WIRE 1024 272 896 272
WIRE -32 304 -32 272
WIRE 896 304 896 272
WIRE 192 368 192 160
WIRE 224 368 192 368
WIRE 368 368 368 144
WIRE 368 368 304 368
WIRE 896 416 896 384
FLAG 688 48 0
FLAG 688 -144 3v3
FLAG 272 32 3v3
FLAG 272 272 0
FLAG 928 48 0
FLAG 928 -144 VBAT
FLAG 896 416 0
FLAG 896 128 3v3
FLAG 1024 272 1.65V
FLAG 128 128 1.65V
FLAG -32 304 0
FLAG -32 16 VBAT
SYMBOL voltage 688 -96 R0
WINDOW 123 0 0 Left 0
WINDOW 39 0 0 Left 0
SYMATTR InstName V1
SYMATTR Value 3.3
SYMBOL voltage 928 -96 R0
WINDOW 123 0 0 Left 0
WINDOW 39 0 0 Left 0
SYMATTR InstName V2
SYMATTR Value PULSE(4.2 3 1 0.2 0.2 1)
SYMBOL res 880 160 R0
SYMATTR InstName R1
SYMATTR Value 10k
SYMBOL res 880 288 R0
SYMATTR InstName R2
SYMATTR Value 10k
SYMBOL res -48 48 R0
SYMATTR InstName R3
SYMATTR Value 10k
SYMBOL res -48 176 R0
SYMATTR InstName R4
SYMATTR Value 9.1k
SYMBOL res 320 352 R90
WINDOW 0 0 56 VBottom 2
WINDOW 3 32 56 VTop 2
SYMATTR InstName R5
SYMATTR Value 300k
SYMBOL OpAmps\\MAX4163 272 80 R0
SYMATTR InstName U2
TEXT 64 296 Left 2 !.tran 15
