Version 4.1
SHEET 1 4696 1396
WIRE 400 16 48 16
WIRE -592 32 -592 0
WIRE 2624 32 2176 32
WIRE 2176 48 2176 32
WIRE 112 96 80 96
WIRE 400 96 400 16
WIRE 400 96 336 96
WIRE 672 96 400 96
WIRE 752 96 672 96
WIRE 80 112 80 96
WIRE 2336 112 2304 112
WIRE 2624 112 2624 32
WIRE 2624 112 2560 112
WIRE 2672 112 2624 112
WIRE 2944 112 2672 112
WIRE 752 128 752 96
WIRE 2304 128 2304 112
WIRE 2672 144 2672 112
WIRE -592 160 -592 112
WIRE 112 160 -592 160
WIRE 384 160 336 160
WIRE 2176 176 2176 128
WIRE 2176 176 1888 176
WIRE 2336 176 2176 176
WIRE 2608 176 2560 176
WIRE 112 224 -160 224
WIRE 384 224 384 160
WIRE 384 224 336 224
WIRE 448 224 448 192
WIRE 448 224 384 224
WIRE 752 224 752 208
WIRE 752 224 448 224
WIRE 2336 240 2064 240
WIRE 2608 240 2608 176
WIRE 2608 240 2560 240
WIRE 2672 240 2672 224
WIRE 2672 240 2608 240
WIRE -592 272 -592 160
WIRE 48 288 48 16
WIRE 112 288 48 288
WIRE 384 288 336 288
WIRE 2336 304 2016 304
WIRE 2608 304 2560 304
WIRE -944 352 -960 352
WIRE -816 352 -944 352
WIRE -640 352 -736 352
WIRE 384 384 384 352
WIRE 448 384 448 288
WIRE 448 384 384 384
WIRE 576 384 448 384
WIRE 2608 400 2608 368
WIRE 2672 400 2672 304
WIRE 2672 400 2608 400
WIRE 2800 400 2672 400
WIRE 576 432 576 384
WIRE 2800 448 2800 400
WIRE 480 512 288 512
WIRE 288 528 288 512
WIRE 2016 544 2016 304
WIRE -592 592 -592 368
WIRE 0 608 -160 608
WIRE 240 608 0 608
WIRE 0 624 0 608
WIRE -384 656 -400 656
WIRE -288 656 -304 656
WIRE -224 656 -288 656
WIRE -288 688 -288 656
WIRE 0 720 0 704
WIRE 288 720 288 624
WIRE 288 720 0 720
WIRE 608 752 608 688
WIRE 768 752 768 688
WIRE 912 752 912 688
WIRE 288 768 288 720
WIRE -288 784 -288 768
WIRE -160 784 -160 704
WIRE 608 848 608 832
WIRE 768 848 768 832
WIRE 912 848 912 832
WIRE -416 1056 -544 1056
WIRE -368 1056 -416 1056
WIRE 16 1056 -112 1056
WIRE 160 1056 96 1056
WIRE 416 1056 160 1056
WIRE 624 1056 416 1056
WIRE 816 1056 624 1056
WIRE 1008 1056 816 1056
WIRE 416 1104 416 1056
WIRE 624 1104 624 1056
WIRE 816 1104 816 1056
WIRE 1008 1120 1008 1056
WIRE -240 1168 -240 1152
WIRE 160 1168 160 1056
WIRE 160 1168 -240 1168
WIRE -416 1184 -416 1056
WIRE 416 1248 416 1168
WIRE 624 1248 624 1168
WIRE 624 1248 416 1248
WIRE 816 1248 816 1168
WIRE 816 1248 624 1248
WIRE 1008 1248 1008 1200
WIRE 1008 1248 816 1248
WIRE -416 1264 -416 1248
WIRE 624 1296 624 1248
FLAG 576 432 0
FLAG 80 112 0
FLAG 608 688 VBAT
FLAG 768 848 0
FLAG 768 688 3V3
FLAG 912 848 0
FLAG 912 688 PIR
FLAG 672 96 3V3
FLAG 624 1296 0
FLAG -160 784 0
FLAG -400 656 Signal
FLAG -288 784 0
FLAG 288 768 VBAT
FLAG 480 512 LM
FLAG 608 848 0
FLAG -416 1264 0
FLAG -544 1056 LM
FLAG 2800 448 0
FLAG 2304 128 0
FLAG 1888 176 PIR
FLAG 2944 112 3V3
FLAG 2064 240 OUT555
FLAG 2016 624 0
FLAG -160 224 Signal
FLAG -592 0 3V3
FLAG -592 592 0
FLAG -944 352 PIR
SYMBOL Misc\\NE555 224 192 R0
SYMATTR InstName U1
SYMBOL res -608 16 R0
SYMATTR InstName R1
SYMATTR Value 10k
SYMBOL res 432 96 R0
SYMATTR InstName R
SYMATTR Value 1000k
SYMBOL cap 432 224 R0
SYMATTR InstName C
SYMATTR Value 10µ
SYMBOL cap 368 288 R0
SYMATTR InstName C1
SYMATTR Value 10n
SYMBOL voltage 608 736 R0
WINDOW 0 32 56 VTop 2
WINDOW 3 -32 56 VBottom 2
WINDOW 123 0 0 Left 0
WINDOW 39 0 0 Left 0
SYMATTR InstName V1
SYMATTR Value 7.4
SYMBOL LED 400 1104 R0
SYMATTR InstName D4
SYMATTR Value LXZ1-PL02
SYMBOL LED 608 1104 R0
SYMATTR InstName D8
SYMATTR Value LXZ1-PL02
SYMBOL LED 800 1104 R0
SYMATTR InstName D9
SYMATTR Value LXZ1-PL02
SYMBOL voltage 768 736 R0
WINDOW 123 0 0 Left 0
WINDOW 39 0 0 Left 0
SYMATTR InstName V2
SYMATTR Value 3.3
SYMBOL voltage 912 736 R0
WINDOW 0 24 96 Left 2
WINDOW 3 24 16 Left 2
WINDOW 123 0 0 Left 0
WINDOW 39 0 0 Left 0
SYMATTR InstName V4
SYMATTR Value PULSE(0 3.3 1 50n 50n 0.1 20)
SYMBOL Contrib\\Toshiba\\bjt\\TDTC114Y -224 608 R0
SYMATTR InstName U3
SYMBOL res -288 640 R90
WINDOW 0 0 56 VBottom 2
WINDOW 3 32 56 VTop 2
SYMATTR InstName R3
SYMATTR Value 1k
SYMBOL pmos 240 528 R0
SYMATTR InstName M1
SYMATTR Value BSS84
SYMBOL res -16 608 R0
SYMATTR InstName R2
SYMATTR Value 10k
SYMBOL res -304 672 R0
SYMATTR InstName R5
SYMATTR Value 10k
SYMBOL res 736 112 R0
SYMATTR InstName R8
SYMATTR Value 270k
SYMBOL PowerProducts\\LT317A -240 1056 R0
SYMATTR InstName U4
SYMBOL res 112 1040 R90
WINDOW 0 0 56 VBottom 2
WINDOW 3 32 56 VTop 2
SYMATTR InstName R6
SYMATTR Value 8
SYMBOL cap -432 1184 R0
SYMATTR InstName C3
SYMATTR Value 1µ
SYMBOL res 992 1104 R0
SYMATTR InstName R7
SYMATTR Value 1k
SYMBOL Misc\\NE555 2448 208 R0
SYMATTR InstName U2
SYMBOL res 2160 32 R0
SYMATTR InstName R4
SYMATTR Value 10k
SYMBOL cap 2656 240 R0
SYMATTR InstName C2
SYMATTR Value 10µ
SYMBOL cap 2592 304 R0
SYMATTR InstName C4
SYMATTR Value 10n
SYMBOL res 2656 128 R0
SYMATTR InstName R10
SYMATTR Value 270k
SYMBOL voltage 2016 528 R0
WINDOW 0 24 96 Left 2
WINDOW 3 24 16 Left 2
WINDOW 123 0 0 Left 0
WINDOW 39 0 0 Left 0
SYMATTR InstName V5
SYMATTR Value PULSE(3.3 0 1.5 50n 50n 1 20)
SYMBOL res -720 336 R90
WINDOW 0 0 56 VBottom 2
WINDOW 3 32 56 VTop 2
SYMATTR InstName R11
SYMATTR Value 100
SYMBOL nmos -640 272 R0
SYMATTR InstName M2
SYMATTR Value Si7540DP_N
TEXT 416 64 Left 2 ;T=1.1*R*C
TEXT 112 336 Left 2 ;R100k\nC100u\nT=11s
TEXT 240 336 Left 2 !.tran 15
TEXT 560 600 Left 2 ;BATERIJA
TEXT -48 888 Left 2 ;167mW -> 0.167W
TEXT 496 968 Left 2 ;1.25/R13=I
TEXT 696 600 Left 2 ;STLQ50C33R
TEXT 880 600 Left 2 ;AM312
TEXT 560 168 Left 2 ;1MOmh
TEXT 2640 80 Left 2 ;T=1.1*R*C
TEXT 2336 352 Left 2 ;R100k\nC100u\nT=11s
TEXT 2464 352 Left 2 ;.tran 15
