Version 4
SHEET 1 4696 1396
WIRE 48 16 -48 16
WIRE 400 16 48 16
WIRE -48 32 -48 16
WIRE 112 96 80 96
WIRE 400 96 400 16
WIRE 400 96 336 96
WIRE 448 96 400 96
WIRE 544 96 448 96
WIRE 80 112 80 96
WIRE 448 112 448 96
WIRE -48 160 -48 112
WIRE -48 160 -336 160
WIRE 112 160 -48 160
WIRE 384 160 336 160
WIRE 112 224 -160 224
WIRE 384 224 384 160
WIRE 384 224 336 224
WIRE 448 224 448 192
WIRE 448 224 384 224
WIRE 48 288 48 16
WIRE 112 288 48 288
WIRE 384 288 336 288
WIRE 384 384 384 352
WIRE 448 384 448 288
WIRE 448 384 384 384
WIRE 576 384 448 384
WIRE 576 432 576 384
WIRE 400 512 288 512
WIRE 480 512 400 512
WIRE 288 528 288 512
WIRE 0 608 -160 608
WIRE 240 608 0 608
WIRE 0 624 0 608
WIRE 400 624 400 512
WIRE -384 656 -400 656
WIRE -288 656 -304 656
WIRE -224 656 -288 656
WIRE -288 688 -288 656
WIRE 0 720 0 704
WIRE 288 720 288 624
WIRE 288 720 0 720
WIRE 608 752 608 688
WIRE 768 752 768 688
WIRE 912 752 912 688
WIRE 288 768 288 720
WIRE -288 784 -288 768
WIRE -160 784 -160 704
WIRE 400 784 400 704
WIRE 608 848 608 832
WIRE 768 848 768 832
WIRE 912 848 912 832
WIRE -240 1056 -288 1056
WIRE 16 1056 -112 1056
WIRE 160 1056 96 1056
WIRE 224 1056 160 1056
WIRE 432 1056 224 1056
WIRE 624 1056 432 1056
WIRE 784 1056 624 1056
WIRE 224 1104 224 1056
WIRE 432 1104 432 1056
WIRE 624 1104 624 1056
WIRE 784 1120 784 1056
WIRE -176 1168 -176 1104
WIRE 160 1168 160 1056
WIRE 160 1168 -176 1168
WIRE 160 1184 160 1168
WIRE 160 1248 160 1232
WIRE 224 1248 224 1168
WIRE 224 1248 160 1248
WIRE 432 1248 432 1168
WIRE 432 1248 224 1248
WIRE 624 1248 624 1168
WIRE 624 1248 432 1248
WIRE 784 1248 784 1200
WIRE 784 1248 624 1248
WIRE 432 1296 432 1248
FLAG 576 432 0
FLAG 80 112 0
FLAG 608 688 VBAT
FLAG 768 848 0
FLAG -160 224 Signal
FLAG 768 688 3V3
FLAG 912 848 0
FLAG 912 688 PIR
FLAG -336 160 PIR
FLAG 544 96 3V3
FLAG 432 1296 0
FLAG -160 784 0
FLAG -400 656 Signal
FLAG 400 784 0
FLAG -288 784 0
FLAG 288 768 VBAT
FLAG 480 512 LM
FLAG -288 1056 LM
FLAG 608 848 0
SYMBOL Misc\\NE555 224 192 R0
SYMATTR InstName U1
SYMBOL res -64 16 R0
SYMATTR InstName R1
SYMATTR Value 10k
SYMBOL res 432 96 R0
SYMATTR InstName R
SYMATTR Value 100k
SYMBOL cap 432 224 R0
SYMATTR InstName C
SYMATTR Value 100µ
SYMBOL cap 368 288 R0
SYMATTR InstName C1
SYMATTR Value 10n
SYMBOL voltage 608 736 R0
WINDOW 0 32 56 VTop 2
WINDOW 3 -32 56 VBottom 2
WINDOW 123 0 0 Left 0
WINDOW 39 0 0 Left 0
SYMATTR InstName V1
SYMATTR Value 7.4
SYMBOL LED 208 1104 R0
SYMATTR InstName D4
SYMATTR Value LXZ1-PL02
SYMBOL LED 416 1104 R0
SYMATTR InstName D8
SYMATTR Value LXZ1-PL02
SYMBOL LED 608 1104 R0
SYMATTR InstName D9
SYMATTR Value LXZ1-PL02
SYMBOL LM317 -176 1056 R0
SYMATTR InstName U2
SYMBOL res 112 1040 R90
WINDOW 0 0 56 VBottom 2
WINDOW 3 32 56 VTop 2
SYMATTR InstName R13
SYMATTR Value 8
SYMBOL voltage 768 736 R0
WINDOW 123 0 0 Left 0
WINDOW 39 0 0 Left 0
SYMATTR InstName V2
SYMATTR Value 3.3
SYMBOL voltage 912 736 R0
WINDOW 0 24 96 Left 2
WINDOW 3 24 16 Left 2
WINDOW 123 0 0 Left 0
WINDOW 39 0 0 Left 0
SYMATTR InstName V4
SYMATTR Value PULSE(3.3 0 1 2n 2n 0.1 20)
SYMBOL Contrib\\Toshiba\\bjt\\TDTC114Y -224 608 R0
SYMATTR InstName U3
SYMBOL res -288 640 R90
WINDOW 0 0 56 VBottom 2
WINDOW 3 32 56 VTop 2
SYMATTR InstName R3
SYMATTR Value 1k
SYMBOL pmos 240 528 R0
SYMATTR InstName M1
SYMATTR Value BSS84
SYMBOL res -16 608 R0
SYMATTR InstName R2
SYMATTR Value 10k
SYMBOL res 384 608 R0
SYMATTR InstName R4
SYMATTR Value 10k
SYMBOL res -304 672 R0
SYMATTR InstName R5
SYMATTR Value 10k
SYMBOL res 768 1104 R0
SYMATTR InstName R7
SYMATTR Value 750
SYMBOL cap 144 1184 R0
WINDOW 3 -32 5 Left 2
SYMATTR Value 10µ
SYMATTR InstName C3
TEXT 416 64 Left 2 ;T=1.1*R*C
TEXT 112 336 Left 2 ;R100k\nC100u\nT=11s
TEXT 240 336 Left 2 !.tran 15
TEXT 560 600 Left 2 ;BATERIJA
TEXT -24 968 Left 2 ;167mW -> 0.167W
TEXT 304 968 Left 2 ;1.25/R13=I
TEXT -88 1136 Left 2 ;Potentiometer
TEXT -216 984 Left 2 ;LM317
TEXT 696 600 Left 2 ;STLQ50C33R
TEXT 880 600 Left 2 ;AM312
